<?xml version="1.0" encoding="UTF-8"?>

<configuration xmlns:xsi="http://www.w3.org/2001/XMLSchema-instance" xsi:noNamespaceSchemaLocation="http://sumo.dlr.de/xsd/sumoConfiguration.xsd">

    <input>
        <net-file value="cross.net.xml"/>
        <route-files value="cross.rou.xml"/>
		<gui-settings-file value="cross.settings.xml"/>
        <!--<additional-files value="cross.det.xml"/>-->
    </input>

    <time>
        <begin value="0"/>
		<step-length value="1"/>
    </time>

    <report>
        <verbose value="true"/>
        <!--<no-step-log value="true"/>-->
		<log value="mylog.txt"/>
    </report>

</configuration>
